
OS:Version,
  {c04b9cf4-9510-4631-808a-753b05b905f9}, !- Handle
  3.8.0;                                  !- Version Identifier

OS:RunPeriod,
  {f3d7e709-05ed-4a79-9467-dba429905393}, !- Handle
  Run Period 1,                           !- Name
  2,                                      !- Begin Month
  28,                                     !- Begin Day of Month
  2,                                      !- End Month
  28,                                     !- End Day of Month
  Yes,                                    !- Use Weather File Holidays and Special Days
  Yes,                                    !- Use Weather File Daylight Saving Period
  Yes,                                    !- Apply Weekend Holiday Rule
  Yes,                                    !- Use Weather File Rain Indicators
  Yes,                                    !- Use Weather File Snow Indicators
  ;                                       !- Number of Times Runperiod to be Repeated

OS:Timestep,
  {c8fc83f5-3489-49bb-b384-003700b8b1bf}, !- Handle
  1;                                      !- Number of Timesteps per Hour

OS:Output:Variable,
  {40b0367d-2410-454d-8edb-5e93001884b1}, !- Handle
  Output Variable 1,                      !- Name
  *,                                      !- Key Value
  Zone Air Temperature,                   !- Variable Name
  Timestep;                               !- Reporting Frequency

OS:Output:Variable,
  {b95751be-c5f7-4411-a694-ff79fe4fe58e}, !- Handle
  Output Variable 2,                      !- Name
  *,                                      !- Key Value
  Heating Coil Electricity Rate,          !- Variable Name
  Timestep;                               !- Reporting Frequency

OS:Space,
  {fad68d32-0c06-4932-a3d3-59d974bcf321}, !- Handle
  Greenhouse_Space_0_0,                   !- Name
  {888a67a8-7406-4902-9047-53b05d2d6b5d}, !- Space Type Name
  {0424489c-f35d-4d12-9fc3-ca8c4865f7bf}, !- Default Construction Set Name
  ,                                       !- Default Schedule Set Name
  ,                                       !- Direction of Relative North {deg}
  ,                                       !- X Origin {m}
  ,                                       !- Y Origin {m}
  ,                                       !- Z Origin {m}
  ,                                       !- Building Story Name
  {86c46ca1-816d-44ca-9a72-46810abc238b}; !- Thermal Zone Name

OS:SpaceType,
  {888a67a8-7406-4902-9047-53b05d2d6b5d}, !- Handle
  Greenhouse_Type_0_0,                    !- Name
  {0424489c-f35d-4d12-9fc3-ca8c4865f7bf}; !- Default Construction Set Name

OS:ThermalZone,
  {86c46ca1-816d-44ca-9a72-46810abc238b}, !- Handle
  Greenhouse_Zone_0_0,                    !- Name
  ,                                       !- Multiplier
  ,                                       !- Ceiling Height {m}
  ,                                       !- Volume {m3}
  ,                                       !- Floor Area {m2}
  ,                                       !- Zone Inside Convection Algorithm
  ,                                       !- Zone Outside Convection Algorithm
  ,                                       !- Zone Conditioning Equipment List Name
  {73c94cae-6274-4a66-9706-3c730048bf30}, !- Zone Air Inlet Port List
  {23e6a895-96b2-492e-a9b5-20a5761e6efd}, !- Zone Air Exhaust Port List
  {1fe0ab9a-5541-4ac6-afcb-595a2d2ff3f5}, !- Zone Air Node Name
  {665b36f6-acdd-475f-9056-7e7c0671207a}, !- Zone Return Air Port List
  ,                                       !- Primary Daylighting Control Name
  ,                                       !- Fraction of Zone Controlled by Primary Daylighting Control
  ,                                       !- Secondary Daylighting Control Name
  ,                                       !- Fraction of Zone Controlled by Secondary Daylighting Control
  ,                                       !- Illuminance Map Name
  ,                                       !- Group Rendering Name
  ,                                       !- Thermostat Name
  No;                                     !- Use Ideal Air Loads

OS:Node,
  {3595bba1-0ae6-4f15-98ef-8c5a5c9c24a7}, !- Handle
  Node 1,                                 !- Name
  {1fe0ab9a-5541-4ac6-afcb-595a2d2ff3f5}, !- Inlet Port
  ;                                       !- Outlet Port

OS:Connection,
  {1fe0ab9a-5541-4ac6-afcb-595a2d2ff3f5}, !- Handle
  {86c46ca1-816d-44ca-9a72-46810abc238b}, !- Source Object
  11,                                     !- Outlet Port
  {3595bba1-0ae6-4f15-98ef-8c5a5c9c24a7}, !- Target Object
  2;                                      !- Inlet Port

OS:PortList,
  {73c94cae-6274-4a66-9706-3c730048bf30}, !- Handle
  {86c46ca1-816d-44ca-9a72-46810abc238b}; !- HVAC Component

OS:PortList,
  {23e6a895-96b2-492e-a9b5-20a5761e6efd}, !- Handle
  {86c46ca1-816d-44ca-9a72-46810abc238b}; !- HVAC Component

OS:PortList,
  {665b36f6-acdd-475f-9056-7e7c0671207a}, !- Handle
  {86c46ca1-816d-44ca-9a72-46810abc238b}; !- HVAC Component

OS:Sizing:Zone,
  {98cd87ca-7787-4006-94ef-d9bbb6497d7f}, !- Handle
  {86c46ca1-816d-44ca-9a72-46810abc238b}, !- Zone or ZoneList Name
  SupplyAirTemperature,                   !- Zone Cooling Design Supply Air Temperature Input Method
  14,                                     !- Zone Cooling Design Supply Air Temperature {C}
  11.11,                                  !- Zone Cooling Design Supply Air Temperature Difference {deltaC}
  SupplyAirTemperature,                   !- Zone Heating Design Supply Air Temperature Input Method
  40,                                     !- Zone Heating Design Supply Air Temperature {C}
  11.11,                                  !- Zone Heating Design Supply Air Temperature Difference {deltaC}
  0.0085,                                 !- Zone Cooling Design Supply Air Humidity Ratio {kg-H2O/kg-air}
  0.008,                                  !- Zone Heating Design Supply Air Humidity Ratio {kg-H2O/kg-air}
  ,                                       !- Zone Heating Sizing Factor
  ,                                       !- Zone Cooling Sizing Factor
  DesignDay,                              !- Cooling Design Air Flow Method
  ,                                       !- Cooling Design Air Flow Rate {m3/s}
  ,                                       !- Cooling Minimum Air Flow per Zone Floor Area {m3/s-m2}
  ,                                       !- Cooling Minimum Air Flow {m3/s}
  ,                                       !- Cooling Minimum Air Flow Fraction
  DesignDay,                              !- Heating Design Air Flow Method
  ,                                       !- Heating Design Air Flow Rate {m3/s}
  ,                                       !- Heating Maximum Air Flow per Zone Floor Area {m3/s-m2}
  ,                                       !- Heating Maximum Air Flow {m3/s}
  ,                                       !- Heating Maximum Air Flow Fraction
  No,                                     !- Account for Dedicated Outdoor Air System
  NeutralSupplyAir,                       !- Dedicated Outdoor Air System Control Strategy
  autosize,                               !- Dedicated Outdoor Air Low Setpoint Temperature for Design {C}
  autosize,                               !- Dedicated Outdoor Air High Setpoint Temperature for Design {C}
  Sensible Load Only No Latent Load,      !- Zone Load Sizing Method
  HumidityRatioDifference,                !- Zone Latent Cooling Design Supply Air Humidity Ratio Input Method
  ,                                       !- Zone Dehumidification Design Supply Air Humidity Ratio {kgWater/kgDryAir}
  0.005,                                  !- Zone Cooling Design Supply Air Humidity Ratio Difference {kgWater/kgDryAir}
  HumidityRatioDifference,                !- Zone Latent Heating Design Supply Air Humidity Ratio Input Method
  ,                                       !- Zone Humidification Design Supply Air Humidity Ratio {kgWater/kgDryAir}
  0.005;                                  !- Zone Humidification Design Supply Air Humidity Ratio Difference {kgWater/kgDryAir}

OS:ZoneHVAC:EquipmentList,
  {5c336a92-bb9e-4b98-b3fe-b8b3dd1739f6}, !- Handle
  Zone HVAC Equipment List 1,             !- Name
  {86c46ca1-816d-44ca-9a72-46810abc238b}; !- Thermal Zone

OS:Space,
  {a45bc214-6ca3-4d29-82d2-fa73b066d575}, !- Handle
  Greenhouse_Space_0_1,                   !- Name
  {743379f8-e227-449b-8c86-4d833eda9992}, !- Space Type Name
  {0424489c-f35d-4d12-9fc3-ca8c4865f7bf}, !- Default Construction Set Name
  ,                                       !- Default Schedule Set Name
  ,                                       !- Direction of Relative North {deg}
  ,                                       !- X Origin {m}
  ,                                       !- Y Origin {m}
  ,                                       !- Z Origin {m}
  ,                                       !- Building Story Name
  {587ddd3d-285b-4cd8-8f18-c12e7c3ac938}; !- Thermal Zone Name

OS:SpaceType,
  {743379f8-e227-449b-8c86-4d833eda9992}, !- Handle
  Greenhouse_Type_0_1,                    !- Name
  {0424489c-f35d-4d12-9fc3-ca8c4865f7bf}; !- Default Construction Set Name

OS:ThermalZone,
  {587ddd3d-285b-4cd8-8f18-c12e7c3ac938}, !- Handle
  Greenhouse_Zone_0_1,                    !- Name
  ,                                       !- Multiplier
  ,                                       !- Ceiling Height {m}
  ,                                       !- Volume {m3}
  ,                                       !- Floor Area {m2}
  ,                                       !- Zone Inside Convection Algorithm
  ,                                       !- Zone Outside Convection Algorithm
  ,                                       !- Zone Conditioning Equipment List Name
  {9ee1d6bd-447b-49d8-b14b-4fa4e06786ba}, !- Zone Air Inlet Port List
  {1ca2a88e-b761-4302-a1a8-83c1a62e54c1}, !- Zone Air Exhaust Port List
  {8bfe8155-d7e4-42e6-8384-48af7dd271e9}, !- Zone Air Node Name
  {ddd9a877-5b89-4c67-be77-3f489858847b}, !- Zone Return Air Port List
  ,                                       !- Primary Daylighting Control Name
  ,                                       !- Fraction of Zone Controlled by Primary Daylighting Control
  ,                                       !- Secondary Daylighting Control Name
  ,                                       !- Fraction of Zone Controlled by Secondary Daylighting Control
  ,                                       !- Illuminance Map Name
  ,                                       !- Group Rendering Name
  ,                                       !- Thermostat Name
  No;                                     !- Use Ideal Air Loads

OS:Node,
  {03cc246c-c186-42c5-9e92-e79d7742b490}, !- Handle
  Node 2,                                 !- Name
  {8bfe8155-d7e4-42e6-8384-48af7dd271e9}, !- Inlet Port
  ;                                       !- Outlet Port

OS:Connection,
  {8bfe8155-d7e4-42e6-8384-48af7dd271e9}, !- Handle
  {587ddd3d-285b-4cd8-8f18-c12e7c3ac938}, !- Source Object
  11,                                     !- Outlet Port
  {03cc246c-c186-42c5-9e92-e79d7742b490}, !- Target Object
  2;                                      !- Inlet Port

OS:PortList,
  {9ee1d6bd-447b-49d8-b14b-4fa4e06786ba}, !- Handle
  {587ddd3d-285b-4cd8-8f18-c12e7c3ac938}; !- HVAC Component

OS:PortList,
  {1ca2a88e-b761-4302-a1a8-83c1a62e54c1}, !- Handle
  {587ddd3d-285b-4cd8-8f18-c12e7c3ac938}; !- HVAC Component

OS:PortList,
  {ddd9a877-5b89-4c67-be77-3f489858847b}, !- Handle
  {587ddd3d-285b-4cd8-8f18-c12e7c3ac938}; !- HVAC Component

OS:Sizing:Zone,
  {8a692b38-96aa-4d50-96c5-9eb0c253351d}, !- Handle
  {587ddd3d-285b-4cd8-8f18-c12e7c3ac938}, !- Zone or ZoneList Name
  SupplyAirTemperature,                   !- Zone Cooling Design Supply Air Temperature Input Method
  14,                                     !- Zone Cooling Design Supply Air Temperature {C}
  11.11,                                  !- Zone Cooling Design Supply Air Temperature Difference {deltaC}
  SupplyAirTemperature,                   !- Zone Heating Design Supply Air Temperature Input Method
  40,                                     !- Zone Heating Design Supply Air Temperature {C}
  11.11,                                  !- Zone Heating Design Supply Air Temperature Difference {deltaC}
  0.0085,                                 !- Zone Cooling Design Supply Air Humidity Ratio {kg-H2O/kg-air}
  0.008,                                  !- Zone Heating Design Supply Air Humidity Ratio {kg-H2O/kg-air}
  ,                                       !- Zone Heating Sizing Factor
  ,                                       !- Zone Cooling Sizing Factor
  DesignDay,                              !- Cooling Design Air Flow Method
  ,                                       !- Cooling Design Air Flow Rate {m3/s}
  ,                                       !- Cooling Minimum Air Flow per Zone Floor Area {m3/s-m2}
  ,                                       !- Cooling Minimum Air Flow {m3/s}
  ,                                       !- Cooling Minimum Air Flow Fraction
  DesignDay,                              !- Heating Design Air Flow Method
  ,                                       !- Heating Design Air Flow Rate {m3/s}
  ,                                       !- Heating Maximum Air Flow per Zone Floor Area {m3/s-m2}
  ,                                       !- Heating Maximum Air Flow {m3/s}
  ,                                       !- Heating Maximum Air Flow Fraction
  No,                                     !- Account for Dedicated Outdoor Air System
  NeutralSupplyAir,                       !- Dedicated Outdoor Air System Control Strategy
  autosize,                               !- Dedicated Outdoor Air Low Setpoint Temperature for Design {C}
  autosize,                               !- Dedicated Outdoor Air High Setpoint Temperature for Design {C}
  Sensible Load Only No Latent Load,      !- Zone Load Sizing Method
  HumidityRatioDifference,                !- Zone Latent Cooling Design Supply Air Humidity Ratio Input Method
  ,                                       !- Zone Dehumidification Design Supply Air Humidity Ratio {kgWater/kgDryAir}
  0.005,                                  !- Zone Cooling Design Supply Air Humidity Ratio Difference {kgWater/kgDryAir}
  HumidityRatioDifference,                !- Zone Latent Heating Design Supply Air Humidity Ratio Input Method
  ,                                       !- Zone Humidification Design Supply Air Humidity Ratio {kgWater/kgDryAir}
  0.005;                                  !- Zone Humidification Design Supply Air Humidity Ratio Difference {kgWater/kgDryAir}

OS:ZoneHVAC:EquipmentList,
  {cd966009-b9b1-4a85-b62c-6d4f4503a787}, !- Handle
  Zone HVAC Equipment List 2,             !- Name
  {587ddd3d-285b-4cd8-8f18-c12e7c3ac938}; !- Thermal Zone

OS:Space,
  {783a950d-91aa-43f3-bd20-601b6003dc5f}, !- Handle
  Greenhouse_Space_0_2,                   !- Name
  {ebefa1a7-c584-41ed-b0ed-f2560da5923e}, !- Space Type Name
  {0424489c-f35d-4d12-9fc3-ca8c4865f7bf}, !- Default Construction Set Name
  ,                                       !- Default Schedule Set Name
  ,                                       !- Direction of Relative North {deg}
  ,                                       !- X Origin {m}
  ,                                       !- Y Origin {m}
  ,                                       !- Z Origin {m}
  ,                                       !- Building Story Name
  {d67741e0-c3e0-45e2-a302-3cd4765f830a}; !- Thermal Zone Name

OS:SpaceType,
  {ebefa1a7-c584-41ed-b0ed-f2560da5923e}, !- Handle
  Greenhouse_Type_0_2,                    !- Name
  {0424489c-f35d-4d12-9fc3-ca8c4865f7bf}; !- Default Construction Set Name

OS:ThermalZone,
  {d67741e0-c3e0-45e2-a302-3cd4765f830a}, !- Handle
  Greenhouse_Zone_0_2,                    !- Name
  ,                                       !- Multiplier
  ,                                       !- Ceiling Height {m}
  ,                                       !- Volume {m3}
  ,                                       !- Floor Area {m2}
  ,                                       !- Zone Inside Convection Algorithm
  ,                                       !- Zone Outside Convection Algorithm
  ,                                       !- Zone Conditioning Equipment List Name
  {b6b256d7-4f05-449c-9f15-2a232a7bddb2}, !- Zone Air Inlet Port List
  {17743f9a-d970-4420-8618-17065e21ca6e}, !- Zone Air Exhaust Port List
  {783098b9-2df7-4a7e-a079-f2ece317e05d}, !- Zone Air Node Name
  {581164a0-0840-447c-8fee-68ae14e9af06}, !- Zone Return Air Port List
  ,                                       !- Primary Daylighting Control Name
  ,                                       !- Fraction of Zone Controlled by Primary Daylighting Control
  ,                                       !- Secondary Daylighting Control Name
  ,                                       !- Fraction of Zone Controlled by Secondary Daylighting Control
  ,                                       !- Illuminance Map Name
  ,                                       !- Group Rendering Name
  ,                                       !- Thermostat Name
  No;                                     !- Use Ideal Air Loads

OS:Node,
  {d76b0522-fa4d-47d3-af79-ffe78e6c85c6}, !- Handle
  Node 3,                                 !- Name
  {783098b9-2df7-4a7e-a079-f2ece317e05d}, !- Inlet Port
  ;                                       !- Outlet Port

OS:Connection,
  {783098b9-2df7-4a7e-a079-f2ece317e05d}, !- Handle
  {d67741e0-c3e0-45e2-a302-3cd4765f830a}, !- Source Object
  11,                                     !- Outlet Port
  {d76b0522-fa4d-47d3-af79-ffe78e6c85c6}, !- Target Object
  2;                                      !- Inlet Port

OS:PortList,
  {b6b256d7-4f05-449c-9f15-2a232a7bddb2}, !- Handle
  {d67741e0-c3e0-45e2-a302-3cd4765f830a}; !- HVAC Component

OS:PortList,
  {17743f9a-d970-4420-8618-17065e21ca6e}, !- Handle
  {d67741e0-c3e0-45e2-a302-3cd4765f830a}; !- HVAC Component

OS:PortList,
  {581164a0-0840-447c-8fee-68ae14e9af06}, !- Handle
  {d67741e0-c3e0-45e2-a302-3cd4765f830a}; !- HVAC Component

OS:Sizing:Zone,
  {4ede160d-c023-4d77-97f7-78cf28f5cc46}, !- Handle
  {d67741e0-c3e0-45e2-a302-3cd4765f830a}, !- Zone or ZoneList Name
  SupplyAirTemperature,                   !- Zone Cooling Design Supply Air Temperature Input Method
  14,                                     !- Zone Cooling Design Supply Air Temperature {C}
  11.11,                                  !- Zone Cooling Design Supply Air Temperature Difference {deltaC}
  SupplyAirTemperature,                   !- Zone Heating Design Supply Air Temperature Input Method
  40,                                     !- Zone Heating Design Supply Air Temperature {C}
  11.11,                                  !- Zone Heating Design Supply Air Temperature Difference {deltaC}
  0.0085,                                 !- Zone Cooling Design Supply Air Humidity Ratio {kg-H2O/kg-air}
  0.008,                                  !- Zone Heating Design Supply Air Humidity Ratio {kg-H2O/kg-air}
  ,                                       !- Zone Heating Sizing Factor
  ,                                       !- Zone Cooling Sizing Factor
  DesignDay,                              !- Cooling Design Air Flow Method
  ,                                       !- Cooling Design Air Flow Rate {m3/s}
  ,                                       !- Cooling Minimum Air Flow per Zone Floor Area {m3/s-m2}
  ,                                       !- Cooling Minimum Air Flow {m3/s}
  ,                                       !- Cooling Minimum Air Flow Fraction
  DesignDay,                              !- Heating Design Air Flow Method
  ,                                       !- Heating Design Air Flow Rate {m3/s}
  ,                                       !- Heating Maximum Air Flow per Zone Floor Area {m3/s-m2}
  ,                                       !- Heating Maximum Air Flow {m3/s}
  ,                                       !- Heating Maximum Air Flow Fraction
  No,                                     !- Account for Dedicated Outdoor Air System
  NeutralSupplyAir,                       !- Dedicated Outdoor Air System Control Strategy
  autosize,                               !- Dedicated Outdoor Air Low Setpoint Temperature for Design {C}
  autosize,                               !- Dedicated Outdoor Air High Setpoint Temperature for Design {C}
  Sensible Load Only No Latent Load,      !- Zone Load Sizing Method
  HumidityRatioDifference,                !- Zone Latent Cooling Design Supply Air Humidity Ratio Input Method
  ,                                       !- Zone Dehumidification Design Supply Air Humidity Ratio {kgWater/kgDryAir}
  0.005,                                  !- Zone Cooling Design Supply Air Humidity Ratio Difference {kgWater/kgDryAir}
  HumidityRatioDifference,                !- Zone Latent Heating Design Supply Air Humidity Ratio Input Method
  ,                                       !- Zone Humidification Design Supply Air Humidity Ratio {kgWater/kgDryAir}
  0.005;                                  !- Zone Humidification Design Supply Air Humidity Ratio Difference {kgWater/kgDryAir}

OS:ZoneHVAC:EquipmentList,
  {9b29f7fa-0704-4dbc-8477-9363bc09e3e7}, !- Handle
  Zone HVAC Equipment List 3,             !- Name
  {d67741e0-c3e0-45e2-a302-3cd4765f830a}; !- Thermal Zone

OS:Space,
  {c8a73a81-03f1-4145-b168-387d92b9514a}, !- Handle
  Greenhouse_Space_0_3,                   !- Name
  {7ed6d336-0774-45ba-9d72-af43509e749c}, !- Space Type Name
  {0424489c-f35d-4d12-9fc3-ca8c4865f7bf}, !- Default Construction Set Name
  ,                                       !- Default Schedule Set Name
  ,                                       !- Direction of Relative North {deg}
  ,                                       !- X Origin {m}
  ,                                       !- Y Origin {m}
  ,                                       !- Z Origin {m}
  ,                                       !- Building Story Name
  {09c50a25-f993-4ba0-94d2-9eed040da3d8}; !- Thermal Zone Name

OS:SpaceType,
  {7ed6d336-0774-45ba-9d72-af43509e749c}, !- Handle
  Greenhouse_Type_0_3,                    !- Name
  {0424489c-f35d-4d12-9fc3-ca8c4865f7bf}; !- Default Construction Set Name

OS:ThermalZone,
  {09c50a25-f993-4ba0-94d2-9eed040da3d8}, !- Handle
  Greenhouse_Zone_0_3,                    !- Name
  ,                                       !- Multiplier
  ,                                       !- Ceiling Height {m}
  ,                                       !- Volume {m3}
  ,                                       !- Floor Area {m2}
  ,                                       !- Zone Inside Convection Algorithm
  ,                                       !- Zone Outside Convection Algorithm
  ,                                       !- Zone Conditioning Equipment List Name
  {d20705c5-4aca-4e9a-a0c2-8ba325d23b0c}, !- Zone Air Inlet Port List
  {09a6f467-f0ad-4b97-a25f-c01f08ef2bbc}, !- Zone Air Exhaust Port List
  {e659bbb5-bfc6-430a-9813-1fb9f1320a94}, !- Zone Air Node Name
  {5f216524-8b4c-44a4-8e4f-581a443e52b9}, !- Zone Return Air Port List
  ,                                       !- Primary Daylighting Control Name
  ,                                       !- Fraction of Zone Controlled by Primary Daylighting Control
  ,                                       !- Secondary Daylighting Control Name
  ,                                       !- Fraction of Zone Controlled by Secondary Daylighting Control
  ,                                       !- Illuminance Map Name
  ,                                       !- Group Rendering Name
  ,                                       !- Thermostat Name
  No;                                     !- Use Ideal Air Loads

OS:Node,
  {15fd5b58-2875-4fee-a811-5f26e2374981}, !- Handle
  Node 4,                                 !- Name
  {e659bbb5-bfc6-430a-9813-1fb9f1320a94}, !- Inlet Port
  ;                                       !- Outlet Port

OS:Connection,
  {e659bbb5-bfc6-430a-9813-1fb9f1320a94}, !- Handle
  {09c50a25-f993-4ba0-94d2-9eed040da3d8}, !- Source Object
  11,                                     !- Outlet Port
  {15fd5b58-2875-4fee-a811-5f26e2374981}, !- Target Object
  2;                                      !- Inlet Port

OS:PortList,
  {d20705c5-4aca-4e9a-a0c2-8ba325d23b0c}, !- Handle
  {09c50a25-f993-4ba0-94d2-9eed040da3d8}; !- HVAC Component

OS:PortList,
  {09a6f467-f0ad-4b97-a25f-c01f08ef2bbc}, !- Handle
  {09c50a25-f993-4ba0-94d2-9eed040da3d8}; !- HVAC Component

OS:PortList,
  {5f216524-8b4c-44a4-8e4f-581a443e52b9}, !- Handle
  {09c50a25-f993-4ba0-94d2-9eed040da3d8}; !- HVAC Component

OS:Sizing:Zone,
  {9ee35d4e-81f9-4943-85bb-4309978c75d7}, !- Handle
  {09c50a25-f993-4ba0-94d2-9eed040da3d8}, !- Zone or ZoneList Name
  SupplyAirTemperature,                   !- Zone Cooling Design Supply Air Temperature Input Method
  14,                                     !- Zone Cooling Design Supply Air Temperature {C}
  11.11,                                  !- Zone Cooling Design Supply Air Temperature Difference {deltaC}
  SupplyAirTemperature,                   !- Zone Heating Design Supply Air Temperature Input Method
  40,                                     !- Zone Heating Design Supply Air Temperature {C}
  11.11,                                  !- Zone Heating Design Supply Air Temperature Difference {deltaC}
  0.0085,                                 !- Zone Cooling Design Supply Air Humidity Ratio {kg-H2O/kg-air}
  0.008,                                  !- Zone Heating Design Supply Air Humidity Ratio {kg-H2O/kg-air}
  ,                                       !- Zone Heating Sizing Factor
  ,                                       !- Zone Cooling Sizing Factor
  DesignDay,                              !- Cooling Design Air Flow Method
  ,                                       !- Cooling Design Air Flow Rate {m3/s}
  ,                                       !- Cooling Minimum Air Flow per Zone Floor Area {m3/s-m2}
  ,                                       !- Cooling Minimum Air Flow {m3/s}
  ,                                       !- Cooling Minimum Air Flow Fraction
  DesignDay,                              !- Heating Design Air Flow Method
  ,                                       !- Heating Design Air Flow Rate {m3/s}
  ,                                       !- Heating Maximum Air Flow per Zone Floor Area {m3/s-m2}
  ,                                       !- Heating Maximum Air Flow {m3/s}
  ,                                       !- Heating Maximum Air Flow Fraction
  No,                                     !- Account for Dedicated Outdoor Air System
  NeutralSupplyAir,                       !- Dedicated Outdoor Air System Control Strategy
  autosize,                               !- Dedicated Outdoor Air Low Setpoint Temperature for Design {C}
  autosize,                               !- Dedicated Outdoor Air High Setpoint Temperature for Design {C}
  Sensible Load Only No Latent Load,      !- Zone Load Sizing Method
  HumidityRatioDifference,                !- Zone Latent Cooling Design Supply Air Humidity Ratio Input Method
  ,                                       !- Zone Dehumidification Design Supply Air Humidity Ratio {kgWater/kgDryAir}
  0.005,                                  !- Zone Cooling Design Supply Air Humidity Ratio Difference {kgWater/kgDryAir}
  HumidityRatioDifference,                !- Zone Latent Heating Design Supply Air Humidity Ratio Input Method
  ,                                       !- Zone Humidification Design Supply Air Humidity Ratio {kgWater/kgDryAir}
  0.005;                                  !- Zone Humidification Design Supply Air Humidity Ratio Difference {kgWater/kgDryAir}

OS:ZoneHVAC:EquipmentList,
  {60447c73-1928-4edf-b211-73e1f69abe39}, !- Handle
  Zone HVAC Equipment List 4,             !- Name
  {09c50a25-f993-4ba0-94d2-9eed040da3d8}; !- Thermal Zone

OS:Space,
  {bba9abef-c383-439b-94b7-78d85344863c}, !- Handle
  Greenhouse_Space_0_4,                   !- Name
  {478ec886-3f3f-4a36-a34b-408b384f1cd9}, !- Space Type Name
  {0424489c-f35d-4d12-9fc3-ca8c4865f7bf}, !- Default Construction Set Name
  ,                                       !- Default Schedule Set Name
  ,                                       !- Direction of Relative North {deg}
  ,                                       !- X Origin {m}
  ,                                       !- Y Origin {m}
  ,                                       !- Z Origin {m}
  ,                                       !- Building Story Name
  {1e7b6dee-b3fe-4295-b537-f67a9ab42b89}; !- Thermal Zone Name

OS:SpaceType,
  {478ec886-3f3f-4a36-a34b-408b384f1cd9}, !- Handle
  Greenhouse_Type_0_4,                    !- Name
  {0424489c-f35d-4d12-9fc3-ca8c4865f7bf}; !- Default Construction Set Name

OS:ThermalZone,
  {1e7b6dee-b3fe-4295-b537-f67a9ab42b89}, !- Handle
  Greenhouse_Zone_0_4,                    !- Name
  ,                                       !- Multiplier
  ,                                       !- Ceiling Height {m}
  ,                                       !- Volume {m3}
  ,                                       !- Floor Area {m2}
  ,                                       !- Zone Inside Convection Algorithm
  ,                                       !- Zone Outside Convection Algorithm
  ,                                       !- Zone Conditioning Equipment List Name